Power Systems Analysis/dr rahimian/HW/HW05/Power Flow/data.m
% A 5-bus system data
% No type PG QG QGmax QGmin PD QD V
bus_data=[1 1 0.0 0.0 2.0 -2.0 1.0 0.1 1.0
          2 3 0.0 0.0 0.0  0.0 0.8 0.2 1.0
          3 3 2.5 1.5 1.5 -0.9 0.5 0.1 1.0
          4 3 0.0 0.0 0.0  0.0 0.2 0.3 1.0
          5 3 0.0 0.0 0.0  0.0 0.5 0.5 1.0];
% NO From To R+jX Capacity Bc
line_data=[1 1 2 0.1+0.4i 1 0
           2 1 4 0.15+0.6i 1 0
           3 1 5 0.1+0.2i 1 0
           4 2 3 0.1+0.2i 1 0
           5 2 4 0.2+0.4i 1 0
           6 3 5 0.1+0.2i 1 0];
    